
---------- Begin Simulation Statistics ----------
sim_seconds                                  1.079301                       # Number of seconds simulated
sim_ticks                                1079300794000                       # Number of ticks simulated
final_tick                               1079300794000                       # Number of ticks from beginning of simulation (restored from checkpoints and never reset)
sim_freq                                 1000000000000                       # Frequency of simulated ticks
host_inst_rate                                 837600                       # Simulator instruction rate (inst/s)
host_op_rate                                  1359313                       # Simulator op (including micro ops) rate (op/s)
host_tick_rate                             1796943390                       # Simulator tick rate (ticks/s)
host_mem_usage                                 665064                       # Number of bytes of host memory used
host_seconds                                   600.63                       # Real time elapsed on the host
sim_insts                                   503088774                       # Number of instructions simulated
sim_ops                                     816446129                       # Number of ops (including micro ops) simulated
system.voltage_domain.voltage                       1                       # Voltage in Volts
system.clk_domain.clock                          1000                       # Clock period in ticks
system.mem_ctrls.pwrStateResidencyTicks::UNDEFINED 1079300794000                       # Cumulative time (in ticks) in various power states
system.mem_ctrls.bytes_read::cpu.inst           22720                       # Number of bytes read from this memory
system.mem_ctrls.bytes_read::cpu.data        17953024                       # Number of bytes read from this memory
system.mem_ctrls.bytes_read::total           17975744                       # Number of bytes read from this memory
system.mem_ctrls.bytes_inst_read::cpu.inst        22720                       # Number of instructions bytes read from this memory
system.mem_ctrls.bytes_inst_read::total         22720                       # Number of instructions bytes read from this memory
system.mem_ctrls.bytes_written::writebacks     16324864                       # Number of bytes written to this memory
system.mem_ctrls.bytes_written::total        16324864                       # Number of bytes written to this memory
system.mem_ctrls.num_reads::cpu.inst              355                       # Number of read requests responded to by this memory
system.mem_ctrls.num_reads::cpu.data           280516                       # Number of read requests responded to by this memory
system.mem_ctrls.num_reads::total              280871                       # Number of read requests responded to by this memory
system.mem_ctrls.num_writes::writebacks        255076                       # Number of write requests responded to by this memory
system.mem_ctrls.num_writes::total             255076                       # Number of write requests responded to by this memory
system.mem_ctrls.bw_read::cpu.inst              21051                       # Total read bandwidth from this memory (bytes/s)
system.mem_ctrls.bw_read::cpu.data           16633939                       # Total read bandwidth from this memory (bytes/s)
system.mem_ctrls.bw_read::total              16654990                       # Total read bandwidth from this memory (bytes/s)
system.mem_ctrls.bw_inst_read::cpu.inst         21051                       # Instruction read bandwidth from this memory (bytes/s)
system.mem_ctrls.bw_inst_read::total            21051                       # Instruction read bandwidth from this memory (bytes/s)
system.mem_ctrls.bw_write::writebacks        15125407                       # Write bandwidth from this memory (bytes/s)
system.mem_ctrls.bw_write::total             15125407                       # Write bandwidth from this memory (bytes/s)
system.mem_ctrls.bw_total::writebacks        15125407                       # Total bandwidth to/from this memory (bytes/s)
system.mem_ctrls.bw_total::cpu.inst             21051                       # Total bandwidth to/from this memory (bytes/s)
system.mem_ctrls.bw_total::cpu.data          16633939                       # Total bandwidth to/from this memory (bytes/s)
system.mem_ctrls.bw_total::total             31780397                       # Total bandwidth to/from this memory (bytes/s)
system.pwrStateResidencyTicks::UNDEFINED 1079300794000                       # Cumulative time (in ticks) in various power states
system.cpu_voltage_domain.voltage                   1                       # Voltage in Volts
system.cpu_clk_domain.clock                       500                       # Clock period in ticks
system.cpu.dtb.walker.pwrStateResidencyTicks::UNDEFINED 1079300794000                       # Cumulative time (in ticks) in various power states
system.cpu.dtb.rdAccesses                   238245990                       # TLB accesses on read requests
system.cpu.dtb.wrAccesses                    64374667                       # TLB accesses on write requests
system.cpu.dtb.rdMisses                          5921                       # TLB misses on read requests
system.cpu.dtb.wrMisses                           999                       # TLB misses on write requests
system.cpu.apic_clk_domain.clock                 8000                       # Clock period in ticks
system.cpu.interrupts.pwrStateResidencyTicks::UNDEFINED 1079300794000                       # Cumulative time (in ticks) in various power states
system.cpu.itb.walker.pwrStateResidencyTicks::UNDEFINED 1079300794000                       # Cumulative time (in ticks) in various power states
system.cpu.itb.rdAccesses                           0                       # TLB accesses on read requests
system.cpu.itb.wrAccesses                   673335213                       # TLB accesses on write requests
system.cpu.itb.rdMisses                             0                       # TLB misses on read requests
system.cpu.itb.wrMisses                            37                       # TLB misses on write requests
system.cpu.workload.numSyscalls                     9                       # Number of system calls
system.cpu.pwrStateResidencyTicks::ON    1079300794000                       # Cumulative time (in ticks) in various power states
system.cpu.numCycles                       2158601588                       # number of cpu cycles simulated
system.cpu.numWorkItemsStarted                      0                       # number of work items this cpu started
system.cpu.numWorkItemsCompleted                    0                       # number of work items this cpu completed
system.cpu.committedInsts                   503088774                       # Number of instructions committed
system.cpu.committedOps                     816446129                       # Number of ops (including micro ops) committed
system.cpu.num_int_alu_accesses             811630010                       # Number of integer alu accesses
system.cpu.num_fp_alu_accesses                   1975                       # Number of float alu accesses
system.cpu.num_vec_alu_accesses                     0                       # Number of vector alu accesses
system.cpu.num_func_calls                     9452832                       # number of times a function call or return occured
system.cpu.num_conditional_control_insts     46565890                       # number of instructions that are conditional controls
system.cpu.num_int_insts                    811630010                       # number of integer instructions
system.cpu.num_fp_insts                          1975                       # number of float instructions
system.cpu.num_vec_insts                            0                       # number of vector instructions
system.cpu.num_int_register_reads          1822855649                       # number of times the integer registers were read
system.cpu.num_int_register_writes          704741308                       # number of times the integer registers were written
system.cpu.num_fp_register_reads                 3787                       # number of times the floating registers were read
system.cpu.num_fp_register_writes                1492                       # number of times the floating registers were written
system.cpu.num_vec_register_reads                   0                       # number of times the vector registers were read
system.cpu.num_vec_register_writes                  0                       # number of times the vector registers were written
system.cpu.num_cc_register_reads            297557775                       # number of times the CC registers were read
system.cpu.num_cc_register_writes           279904588                       # number of times the CC registers were written
system.cpu.num_mem_refs                     302620652                       # number of memory refs
system.cpu.num_load_insts                   238245986                       # Number of load instructions
system.cpu.num_store_insts                   64374666                       # Number of store instructions
system.cpu.num_idle_cycles                          0                       # Number of idle cycles
system.cpu.num_busy_cycles                 2158601588                       # Number of busy cycles
system.cpu.not_idle_fraction                        1                       # Percentage of non-idle cycles
system.cpu.idle_fraction                            0                       # Percentage of idle cycles
system.cpu.Branches                          60772146                       # Number of branches fetched
system.cpu.op_class::No_OpClass               1362109      0.17%      0.17% # Class of executed instruction
system.cpu.op_class::IntAlu                 504014358     61.73%     61.90% # Class of executed instruction
system.cpu.op_class::IntMult                        4      0.00%     61.90% # Class of executed instruction
system.cpu.op_class::IntDiv                   8448046      1.03%     62.93% # Class of executed instruction
system.cpu.op_class::FloatAdd                      10      0.00%     62.93% # Class of executed instruction
system.cpu.op_class::FloatCmp                       0      0.00%     62.93% # Class of executed instruction
system.cpu.op_class::FloatCvt                       0      0.00%     62.93% # Class of executed instruction
system.cpu.op_class::FloatMult                      0      0.00%     62.93% # Class of executed instruction
system.cpu.op_class::FloatMultAcc                   0      0.00%     62.93% # Class of executed instruction
system.cpu.op_class::FloatDiv                       0      0.00%     62.93% # Class of executed instruction
system.cpu.op_class::FloatMisc                      0      0.00%     62.93% # Class of executed instruction
system.cpu.op_class::FloatSqrt                      0      0.00%     62.93% # Class of executed instruction
system.cpu.op_class::SimdAdd                      374      0.00%     62.93% # Class of executed instruction
system.cpu.op_class::SimdAddAcc                     0      0.00%     62.93% # Class of executed instruction
system.cpu.op_class::SimdAlu                       68      0.00%     62.93% # Class of executed instruction
system.cpu.op_class::SimdCmp                        0      0.00%     62.93% # Class of executed instruction
system.cpu.op_class::SimdCvt                      108      0.00%     62.93% # Class of executed instruction
system.cpu.op_class::SimdMisc                     214      0.00%     62.93% # Class of executed instruction
system.cpu.op_class::SimdMult                       0      0.00%     62.93% # Class of executed instruction
system.cpu.op_class::SimdMultAcc                    0      0.00%     62.93% # Class of executed instruction
system.cpu.op_class::SimdShift                    186      0.00%     62.93% # Class of executed instruction
system.cpu.op_class::SimdShiftAcc                   0      0.00%     62.93% # Class of executed instruction
system.cpu.op_class::SimdSqrt                       0      0.00%     62.93% # Class of executed instruction
system.cpu.op_class::SimdFloatAdd                   0      0.00%     62.93% # Class of executed instruction
system.cpu.op_class::SimdFloatAlu                   0      0.00%     62.93% # Class of executed instruction
system.cpu.op_class::SimdFloatCmp                   0      0.00%     62.93% # Class of executed instruction
system.cpu.op_class::SimdFloatCvt                   0      0.00%     62.93% # Class of executed instruction
system.cpu.op_class::SimdFloatDiv                   0      0.00%     62.93% # Class of executed instruction
system.cpu.op_class::SimdFloatMisc                  0      0.00%     62.93% # Class of executed instruction
system.cpu.op_class::SimdFloatMult                  0      0.00%     62.93% # Class of executed instruction
system.cpu.op_class::SimdFloatMultAcc               0      0.00%     62.93% # Class of executed instruction
system.cpu.op_class::SimdFloatSqrt                  0      0.00%     62.93% # Class of executed instruction
system.cpu.op_class::MemRead                238245918     29.18%     92.12% # Class of executed instruction
system.cpu.op_class::MemWrite                64374231      7.88%    100.00% # Class of executed instruction
system.cpu.op_class::FloatMemRead                  68      0.00%    100.00% # Class of executed instruction
system.cpu.op_class::FloatMemWrite                435      0.00%    100.00% # Class of executed instruction
system.cpu.op_class::IprAccess                      0      0.00%    100.00% # Class of executed instruction
system.cpu.op_class::InstPrefetch                   0      0.00%    100.00% # Class of executed instruction
system.cpu.op_class::total                  816446129                       # Class of executed instruction
system.cpu.dcache.tags.pwrStateResidencyTicks::UNDEFINED 1079300794000                       # Cumulative time (in ticks) in various power states
system.cpu.dcache.tags.tagsinuse           511.824764                       # Cycle average of tags in use
system.cpu.dcache.tags.total_refs           302620657                       # Total number of references to valid blocks.
system.cpu.dcache.tags.sampled_refs            682610                       # Sample count of references to valid blocks.
system.cpu.dcache.tags.avg_refs            443.328778                       # Average number of references to valid blocks.
system.cpu.dcache.tags.warmup_cycle            759000                       # Cycle when the warmup percentage was hit.
system.cpu.dcache.tags.occ_blocks::cpu.data   511.824764                       # Average occupied blocks per requestor
system.cpu.dcache.tags.occ_percent::cpu.data     0.999658                       # Average percentage of cache occupancy
system.cpu.dcache.tags.occ_percent::total     0.999658                       # Average percentage of cache occupancy
system.cpu.dcache.tags.occ_task_id_blocks::1024          512                       # Occupied blocks per task id
system.cpu.dcache.tags.age_task_id_blocks_1024::0           11                       # Occupied blocks per task id
system.cpu.dcache.tags.age_task_id_blocks_1024::1           18                       # Occupied blocks per task id
system.cpu.dcache.tags.age_task_id_blocks_1024::2           54                       # Occupied blocks per task id
system.cpu.dcache.tags.age_task_id_blocks_1024::3          422                       # Occupied blocks per task id
system.cpu.dcache.tags.age_task_id_blocks_1024::4            7                       # Occupied blocks per task id
system.cpu.dcache.tags.occ_task_id_percent::1024            1                       # Percentage of cache occupancy per task id
system.cpu.dcache.tags.tag_accesses         605923924                       # Number of tag accesses
system.cpu.dcache.tags.data_accesses        605923924                       # Number of data accesses
system.cpu.dcache.pwrStateResidencyTicks::UNDEFINED 1079300794000                       # Cumulative time (in ticks) in various power states
system.cpu.dcache.ReadReq_hits::cpu.data    237629891                       # number of ReadReq hits
system.cpu.dcache.ReadReq_hits::total       237629891                       # number of ReadReq hits
system.cpu.dcache.WriteReq_hits::cpu.data     64087303                       # number of WriteReq hits
system.cpu.dcache.WriteReq_hits::total       64087303                       # number of WriteReq hits
system.cpu.dcache.demand_hits::cpu.data     301717194                       # number of demand (read+write) hits
system.cpu.dcache.demand_hits::total        301717194                       # number of demand (read+write) hits
system.cpu.dcache.overall_hits::cpu.data    301717194                       # number of overall hits
system.cpu.dcache.overall_hits::total       301717194                       # number of overall hits
system.cpu.dcache.ReadReq_misses::cpu.data       616099                       # number of ReadReq misses
system.cpu.dcache.ReadReq_misses::total        616099                       # number of ReadReq misses
system.cpu.dcache.WriteReq_misses::cpu.data       287364                       # number of WriteReq misses
system.cpu.dcache.WriteReq_misses::total       287364                       # number of WriteReq misses
system.cpu.dcache.demand_misses::cpu.data       903463                       # number of demand (read+write) misses
system.cpu.dcache.demand_misses::total         903463                       # number of demand (read+write) misses
system.cpu.dcache.overall_misses::cpu.data       903463                       # number of overall misses
system.cpu.dcache.overall_misses::total        903463                       # number of overall misses
system.cpu.dcache.ReadReq_miss_latency::cpu.data  85166844500                       # number of ReadReq miss cycles
system.cpu.dcache.ReadReq_miss_latency::total  85166844500                       # number of ReadReq miss cycles
system.cpu.dcache.WriteReq_miss_latency::cpu.data  19024137000                       # number of WriteReq miss cycles
system.cpu.dcache.WriteReq_miss_latency::total  19024137000                       # number of WriteReq miss cycles
system.cpu.dcache.demand_miss_latency::cpu.data 104190981500                       # number of demand (read+write) miss cycles
system.cpu.dcache.demand_miss_latency::total 104190981500                       # number of demand (read+write) miss cycles
system.cpu.dcache.overall_miss_latency::cpu.data 104190981500                       # number of overall miss cycles
system.cpu.dcache.overall_miss_latency::total 104190981500                       # number of overall miss cycles
system.cpu.dcache.ReadReq_accesses::cpu.data    238245990                       # number of ReadReq accesses(hits+misses)
system.cpu.dcache.ReadReq_accesses::total    238245990                       # number of ReadReq accesses(hits+misses)
system.cpu.dcache.WriteReq_accesses::cpu.data     64374667                       # number of WriteReq accesses(hits+misses)
system.cpu.dcache.WriteReq_accesses::total     64374667                       # number of WriteReq accesses(hits+misses)
system.cpu.dcache.demand_accesses::cpu.data    302620657                       # number of demand (read+write) accesses
system.cpu.dcache.demand_accesses::total    302620657                       # number of demand (read+write) accesses
system.cpu.dcache.overall_accesses::cpu.data    302620657                       # number of overall (read+write) accesses
system.cpu.dcache.overall_accesses::total    302620657                       # number of overall (read+write) accesses
system.cpu.dcache.ReadReq_miss_rate::cpu.data     0.002586                       # miss rate for ReadReq accesses
system.cpu.dcache.ReadReq_miss_rate::total     0.002586                       # miss rate for ReadReq accesses
system.cpu.dcache.WriteReq_miss_rate::cpu.data     0.004464                       # miss rate for WriteReq accesses
system.cpu.dcache.WriteReq_miss_rate::total     0.004464                       # miss rate for WriteReq accesses
system.cpu.dcache.demand_miss_rate::cpu.data     0.002985                       # miss rate for demand accesses
system.cpu.dcache.demand_miss_rate::total     0.002985                       # miss rate for demand accesses
system.cpu.dcache.overall_miss_rate::cpu.data     0.002985                       # miss rate for overall accesses
system.cpu.dcache.overall_miss_rate::total     0.002985                       # miss rate for overall accesses
system.cpu.dcache.ReadReq_avg_miss_latency::cpu.data 138235.648005                       # average ReadReq miss latency
system.cpu.dcache.ReadReq_avg_miss_latency::total 138235.648005                       # average ReadReq miss latency
system.cpu.dcache.WriteReq_avg_miss_latency::cpu.data 66202.227836                       # average WriteReq miss latency
system.cpu.dcache.WriteReq_avg_miss_latency::total 66202.227836                       # average WriteReq miss latency
system.cpu.dcache.demand_avg_miss_latency::cpu.data 115324.016036                       # average overall miss latency
system.cpu.dcache.demand_avg_miss_latency::total 115324.016036                       # average overall miss latency
system.cpu.dcache.overall_avg_miss_latency::cpu.data 115324.016036                       # average overall miss latency
system.cpu.dcache.overall_avg_miss_latency::total 115324.016036                       # average overall miss latency
system.cpu.dcache.blocked_cycles::no_mshrs            0                       # number of cycles access was blocked
system.cpu.dcache.blocked_cycles::no_targets            0                       # number of cycles access was blocked
system.cpu.dcache.blocked::no_mshrs                 0                       # number of cycles access was blocked
system.cpu.dcache.blocked::no_targets               0                       # number of cycles access was blocked
system.cpu.dcache.avg_blocked_cycles::no_mshrs          nan                       # average number of cycles each access was blocked
system.cpu.dcache.avg_blocked_cycles::no_targets          nan                       # average number of cycles each access was blocked
system.cpu.dcache.writebacks::writebacks       657660                       # number of writebacks
system.cpu.dcache.writebacks::total            657660                       # number of writebacks
system.cpu.dcache.ReadReq_mshr_misses::cpu.data       616099                       # number of ReadReq MSHR misses
system.cpu.dcache.ReadReq_mshr_misses::total       616099                       # number of ReadReq MSHR misses
system.cpu.dcache.WriteReq_mshr_misses::cpu.data       287364                       # number of WriteReq MSHR misses
system.cpu.dcache.WriteReq_mshr_misses::total       287364                       # number of WriteReq MSHR misses
system.cpu.dcache.demand_mshr_misses::cpu.data       903463                       # number of demand (read+write) MSHR misses
system.cpu.dcache.demand_mshr_misses::total       903463                       # number of demand (read+write) MSHR misses
system.cpu.dcache.overall_mshr_misses::cpu.data       903463                       # number of overall MSHR misses
system.cpu.dcache.overall_mshr_misses::total       903463                       # number of overall MSHR misses
system.cpu.dcache.ReadReq_mshr_miss_latency::cpu.data  84550745500                       # number of ReadReq MSHR miss cycles
system.cpu.dcache.ReadReq_mshr_miss_latency::total  84550745500                       # number of ReadReq MSHR miss cycles
system.cpu.dcache.WriteReq_mshr_miss_latency::cpu.data  18736773000                       # number of WriteReq MSHR miss cycles
system.cpu.dcache.WriteReq_mshr_miss_latency::total  18736773000                       # number of WriteReq MSHR miss cycles
system.cpu.dcache.demand_mshr_miss_latency::cpu.data 103287518500                       # number of demand (read+write) MSHR miss cycles
system.cpu.dcache.demand_mshr_miss_latency::total 103287518500                       # number of demand (read+write) MSHR miss cycles
system.cpu.dcache.overall_mshr_miss_latency::cpu.data 103287518500                       # number of overall MSHR miss cycles
system.cpu.dcache.overall_mshr_miss_latency::total 103287518500                       # number of overall MSHR miss cycles
system.cpu.dcache.ReadReq_mshr_miss_rate::cpu.data     0.002586                       # mshr miss rate for ReadReq accesses
system.cpu.dcache.ReadReq_mshr_miss_rate::total     0.002586                       # mshr miss rate for ReadReq accesses
system.cpu.dcache.WriteReq_mshr_miss_rate::cpu.data     0.004464                       # mshr miss rate for WriteReq accesses
system.cpu.dcache.WriteReq_mshr_miss_rate::total     0.004464                       # mshr miss rate for WriteReq accesses
system.cpu.dcache.demand_mshr_miss_rate::cpu.data     0.002985                       # mshr miss rate for demand accesses
system.cpu.dcache.demand_mshr_miss_rate::total     0.002985                       # mshr miss rate for demand accesses
system.cpu.dcache.overall_mshr_miss_rate::cpu.data     0.002985                       # mshr miss rate for overall accesses
system.cpu.dcache.overall_mshr_miss_rate::total     0.002985                       # mshr miss rate for overall accesses
system.cpu.dcache.ReadReq_avg_mshr_miss_latency::cpu.data 137235.648005                       # average ReadReq mshr miss latency
system.cpu.dcache.ReadReq_avg_mshr_miss_latency::total 137235.648005                       # average ReadReq mshr miss latency
system.cpu.dcache.WriteReq_avg_mshr_miss_latency::cpu.data 65202.227836                       # average WriteReq mshr miss latency
system.cpu.dcache.WriteReq_avg_mshr_miss_latency::total 65202.227836                       # average WriteReq mshr miss latency
system.cpu.dcache.demand_avg_mshr_miss_latency::cpu.data 114324.016036                       # average overall mshr miss latency
system.cpu.dcache.demand_avg_mshr_miss_latency::total 114324.016036                       # average overall mshr miss latency
system.cpu.dcache.overall_avg_mshr_miss_latency::cpu.data 114324.016036                       # average overall mshr miss latency
system.cpu.dcache.overall_avg_mshr_miss_latency::total 114324.016036                       # average overall mshr miss latency
system.cpu.dcache.replacements                 682098                       # number of replacements
system.cpu.dtb_walker_cache.tags.pwrStateResidencyTicks::UNDEFINED 1079300794000                       # Cumulative time (in ticks) in various power states
system.cpu.dtb_walker_cache.tags.tagsinuse            0                       # Cycle average of tags in use
system.cpu.dtb_walker_cache.tags.total_refs            0                       # Total number of references to valid blocks.
system.cpu.dtb_walker_cache.tags.sampled_refs            0                       # Sample count of references to valid blocks.
system.cpu.dtb_walker_cache.tags.avg_refs          nan                       # Average number of references to valid blocks.
system.cpu.dtb_walker_cache.tags.warmup_cycle            0                       # Cycle when the warmup percentage was hit.
system.cpu.dtb_walker_cache.tags.tag_accesses            0                       # Number of tag accesses
system.cpu.dtb_walker_cache.tags.data_accesses            0                       # Number of data accesses
system.cpu.dtb_walker_cache.pwrStateResidencyTicks::UNDEFINED 1079300794000                       # Cumulative time (in ticks) in various power states
system.cpu.dtb_walker_cache.blocked_cycles::no_mshrs            0                       # number of cycles access was blocked
system.cpu.dtb_walker_cache.blocked_cycles::no_targets            0                       # number of cycles access was blocked
system.cpu.dtb_walker_cache.blocked::no_mshrs            0                       # number of cycles access was blocked
system.cpu.dtb_walker_cache.blocked::no_targets            0                       # number of cycles access was blocked
system.cpu.dtb_walker_cache.avg_blocked_cycles::no_mshrs          nan                       # average number of cycles each access was blocked
system.cpu.dtb_walker_cache.avg_blocked_cycles::no_targets          nan                       # average number of cycles each access was blocked
system.cpu.dtb_walker_cache.replacements            0                       # number of replacements
system.cpu.icache.tags.pwrStateResidencyTicks::UNDEFINED 1079300794000                       # Cumulative time (in ticks) in various power states
system.cpu.icache.tags.tagsinuse           281.491334                       # Cycle average of tags in use
system.cpu.icache.tags.total_refs           673335213                       # Total number of references to valid blocks.
system.cpu.icache.tags.sampled_refs               355                       # Sample count of references to valid blocks.
system.cpu.icache.tags.avg_refs          1896718.909859                       # Average number of references to valid blocks.
system.cpu.icache.tags.warmup_cycle            439000                       # Cycle when the warmup percentage was hit.
system.cpu.icache.tags.occ_blocks::cpu.inst   281.491334                       # Average occupied blocks per requestor
system.cpu.icache.tags.occ_percent::cpu.inst     0.549788                       # Average percentage of cache occupancy
system.cpu.icache.tags.occ_percent::total     0.549788                       # Average percentage of cache occupancy
system.cpu.icache.tags.occ_task_id_blocks::1024          311                       # Occupied blocks per task id
system.cpu.icache.tags.age_task_id_blocks_1024::0           20                       # Occupied blocks per task id
system.cpu.icache.tags.age_task_id_blocks_1024::1           18                       # Occupied blocks per task id
system.cpu.icache.tags.age_task_id_blocks_1024::4          273                       # Occupied blocks per task id
system.cpu.icache.tags.occ_task_id_percent::1024     0.607422                       # Percentage of cache occupancy per task id
system.cpu.icache.tags.tag_accesses        1346670781                       # Number of tag accesses
system.cpu.icache.tags.data_accesses       1346670781                       # Number of data accesses
system.cpu.icache.pwrStateResidencyTicks::UNDEFINED 1079300794000                       # Cumulative time (in ticks) in various power states
system.cpu.icache.ReadReq_hits::cpu.inst    673334858                       # number of ReadReq hits
system.cpu.icache.ReadReq_hits::total       673334858                       # number of ReadReq hits
system.cpu.icache.demand_hits::cpu.inst     673334858                       # number of demand (read+write) hits
system.cpu.icache.demand_hits::total        673334858                       # number of demand (read+write) hits
system.cpu.icache.overall_hits::cpu.inst    673334858                       # number of overall hits
system.cpu.icache.overall_hits::total       673334858                       # number of overall hits
system.cpu.icache.ReadReq_misses::cpu.inst          355                       # number of ReadReq misses
system.cpu.icache.ReadReq_misses::total           355                       # number of ReadReq misses
system.cpu.icache.demand_misses::cpu.inst          355                       # number of demand (read+write) misses
system.cpu.icache.demand_misses::total            355                       # number of demand (read+write) misses
system.cpu.icache.overall_misses::cpu.inst          355                       # number of overall misses
system.cpu.icache.overall_misses::total           355                       # number of overall misses
system.cpu.icache.ReadReq_miss_latency::cpu.inst     57764500                       # number of ReadReq miss cycles
system.cpu.icache.ReadReq_miss_latency::total     57764500                       # number of ReadReq miss cycles
system.cpu.icache.demand_miss_latency::cpu.inst     57764500                       # number of demand (read+write) miss cycles
system.cpu.icache.demand_miss_latency::total     57764500                       # number of demand (read+write) miss cycles
system.cpu.icache.overall_miss_latency::cpu.inst     57764500                       # number of overall miss cycles
system.cpu.icache.overall_miss_latency::total     57764500                       # number of overall miss cycles
system.cpu.icache.ReadReq_accesses::cpu.inst    673335213                       # number of ReadReq accesses(hits+misses)
system.cpu.icache.ReadReq_accesses::total    673335213                       # number of ReadReq accesses(hits+misses)
system.cpu.icache.demand_accesses::cpu.inst    673335213                       # number of demand (read+write) accesses
system.cpu.icache.demand_accesses::total    673335213                       # number of demand (read+write) accesses
system.cpu.icache.overall_accesses::cpu.inst    673335213                       # number of overall (read+write) accesses
system.cpu.icache.overall_accesses::total    673335213                       # number of overall (read+write) accesses
system.cpu.icache.ReadReq_miss_rate::cpu.inst     0.000001                       # miss rate for ReadReq accesses
system.cpu.icache.ReadReq_miss_rate::total     0.000001                       # miss rate for ReadReq accesses
system.cpu.icache.demand_miss_rate::cpu.inst     0.000001                       # miss rate for demand accesses
system.cpu.icache.demand_miss_rate::total     0.000001                       # miss rate for demand accesses
system.cpu.icache.overall_miss_rate::cpu.inst     0.000001                       # miss rate for overall accesses
system.cpu.icache.overall_miss_rate::total     0.000001                       # miss rate for overall accesses
system.cpu.icache.ReadReq_avg_miss_latency::cpu.inst 162716.901408                       # average ReadReq miss latency
system.cpu.icache.ReadReq_avg_miss_latency::total 162716.901408                       # average ReadReq miss latency
system.cpu.icache.demand_avg_miss_latency::cpu.inst 162716.901408                       # average overall miss latency
system.cpu.icache.demand_avg_miss_latency::total 162716.901408                       # average overall miss latency
system.cpu.icache.overall_avg_miss_latency::cpu.inst 162716.901408                       # average overall miss latency
system.cpu.icache.overall_avg_miss_latency::total 162716.901408                       # average overall miss latency
system.cpu.icache.blocked_cycles::no_mshrs            0                       # number of cycles access was blocked
system.cpu.icache.blocked_cycles::no_targets            0                       # number of cycles access was blocked
system.cpu.icache.blocked::no_mshrs                 0                       # number of cycles access was blocked
system.cpu.icache.blocked::no_targets               0                       # number of cycles access was blocked
system.cpu.icache.avg_blocked_cycles::no_mshrs          nan                       # average number of cycles each access was blocked
system.cpu.icache.avg_blocked_cycles::no_targets          nan                       # average number of cycles each access was blocked
system.cpu.icache.writebacks::writebacks           44                       # number of writebacks
system.cpu.icache.writebacks::total                44                       # number of writebacks
system.cpu.icache.ReadReq_mshr_misses::cpu.inst          355                       # number of ReadReq MSHR misses
system.cpu.icache.ReadReq_mshr_misses::total          355                       # number of ReadReq MSHR misses
system.cpu.icache.demand_mshr_misses::cpu.inst          355                       # number of demand (read+write) MSHR misses
system.cpu.icache.demand_mshr_misses::total          355                       # number of demand (read+write) MSHR misses
system.cpu.icache.overall_mshr_misses::cpu.inst          355                       # number of overall MSHR misses
system.cpu.icache.overall_mshr_misses::total          355                       # number of overall MSHR misses
system.cpu.icache.ReadReq_mshr_miss_latency::cpu.inst     57409500                       # number of ReadReq MSHR miss cycles
system.cpu.icache.ReadReq_mshr_miss_latency::total     57409500                       # number of ReadReq MSHR miss cycles
system.cpu.icache.demand_mshr_miss_latency::cpu.inst     57409500                       # number of demand (read+write) MSHR miss cycles
system.cpu.icache.demand_mshr_miss_latency::total     57409500                       # number of demand (read+write) MSHR miss cycles
system.cpu.icache.overall_mshr_miss_latency::cpu.inst     57409500                       # number of overall MSHR miss cycles
system.cpu.icache.overall_mshr_miss_latency::total     57409500                       # number of overall MSHR miss cycles
system.cpu.icache.ReadReq_mshr_miss_rate::cpu.inst     0.000001                       # mshr miss rate for ReadReq accesses
system.cpu.icache.ReadReq_mshr_miss_rate::total     0.000001                       # mshr miss rate for ReadReq accesses
system.cpu.icache.demand_mshr_miss_rate::cpu.inst     0.000001                       # mshr miss rate for demand accesses
system.cpu.icache.demand_mshr_miss_rate::total     0.000001                       # mshr miss rate for demand accesses
system.cpu.icache.overall_mshr_miss_rate::cpu.inst     0.000001                       # mshr miss rate for overall accesses
system.cpu.icache.overall_mshr_miss_rate::total     0.000001                       # mshr miss rate for overall accesses
system.cpu.icache.ReadReq_avg_mshr_miss_latency::cpu.inst 161716.901408                       # average ReadReq mshr miss latency
system.cpu.icache.ReadReq_avg_mshr_miss_latency::total 161716.901408                       # average ReadReq mshr miss latency
system.cpu.icache.demand_avg_mshr_miss_latency::cpu.inst 161716.901408                       # average overall mshr miss latency
system.cpu.icache.demand_avg_mshr_miss_latency::total 161716.901408                       # average overall mshr miss latency
system.cpu.icache.overall_avg_mshr_miss_latency::cpu.inst 161716.901408                       # average overall mshr miss latency
system.cpu.icache.overall_avg_mshr_miss_latency::total 161716.901408                       # average overall mshr miss latency
system.cpu.icache.replacements                     44                       # number of replacements
system.cpu.itb_walker_cache.tags.pwrStateResidencyTicks::UNDEFINED 1079300794000                       # Cumulative time (in ticks) in various power states
system.cpu.itb_walker_cache.tags.tagsinuse            0                       # Cycle average of tags in use
system.cpu.itb_walker_cache.tags.total_refs            0                       # Total number of references to valid blocks.
system.cpu.itb_walker_cache.tags.sampled_refs            0                       # Sample count of references to valid blocks.
system.cpu.itb_walker_cache.tags.avg_refs          nan                       # Average number of references to valid blocks.
system.cpu.itb_walker_cache.tags.warmup_cycle            0                       # Cycle when the warmup percentage was hit.
system.cpu.itb_walker_cache.tags.tag_accesses            0                       # Number of tag accesses
system.cpu.itb_walker_cache.tags.data_accesses            0                       # Number of data accesses
system.cpu.itb_walker_cache.pwrStateResidencyTicks::UNDEFINED 1079300794000                       # Cumulative time (in ticks) in various power states
system.cpu.itb_walker_cache.blocked_cycles::no_mshrs            0                       # number of cycles access was blocked
system.cpu.itb_walker_cache.blocked_cycles::no_targets            0                       # number of cycles access was blocked
system.cpu.itb_walker_cache.blocked::no_mshrs            0                       # number of cycles access was blocked
system.cpu.itb_walker_cache.blocked::no_targets            0                       # number of cycles access was blocked
system.cpu.itb_walker_cache.avg_blocked_cycles::no_mshrs          nan                       # average number of cycles each access was blocked
system.cpu.itb_walker_cache.avg_blocked_cycles::no_targets          nan                       # average number of cycles each access was blocked
system.cpu.itb_walker_cache.replacements            0                       # number of replacements
system.l2.tags.pwrStateResidencyTicks::UNDEFINED 1079300794000                       # Cumulative time (in ticks) in various power states
system.l2.tags.tagsinuse                  2045.634339                       # Cycle average of tags in use
system.l2.tags.total_refs                     1585960                       # Total number of references to valid blocks.
system.l2.tags.sampled_refs                    518839                       # Sample count of references to valid blocks.
system.l2.tags.avg_refs                      3.056748                       # Average number of references to valid blocks.
system.l2.tags.warmup_cycle                    428500                       # Cycle when the warmup percentage was hit.
system.l2.tags.occ_blocks::writebacks        1.039165                       # Average occupied blocks per requestor
system.l2.tags.occ_blocks::cpu.inst          0.923184                       # Average occupied blocks per requestor
system.l2.tags.occ_blocks::cpu.data       2043.671990                       # Average occupied blocks per requestor
system.l2.tags.occ_percent::writebacks       0.000507                       # Average percentage of cache occupancy
system.l2.tags.occ_percent::cpu.inst         0.000451                       # Average percentage of cache occupancy
system.l2.tags.occ_percent::cpu.data         0.997887                       # Average percentage of cache occupancy
system.l2.tags.occ_percent::total            0.998845                       # Average percentage of cache occupancy
system.l2.tags.occ_task_id_blocks::1024          2048                       # Occupied blocks per task id
system.l2.tags.age_task_id_blocks_1024::0           37                       # Occupied blocks per task id
system.l2.tags.age_task_id_blocks_1024::1           38                       # Occupied blocks per task id
system.l2.tags.age_task_id_blocks_1024::3          450                       # Occupied blocks per task id
system.l2.tags.age_task_id_blocks_1024::4         1523                       # Occupied blocks per task id
system.l2.tags.occ_task_id_percent::1024            1                       # Percentage of cache occupancy per task id
system.l2.tags.tag_accesses                  13206519                       # Number of tag accesses
system.l2.tags.data_accesses                 13206519                       # Number of data accesses
system.l2.pwrStateResidencyTicks::UNDEFINED 1079300794000                       # Cumulative time (in ticks) in various power states
system.l2.WritebackDirty_hits::writebacks       657660                       # number of WritebackDirty hits
system.l2.WritebackDirty_hits::total           657660                       # number of WritebackDirty hits
system.l2.WritebackClean_hits::writebacks           44                       # number of WritebackClean hits
system.l2.WritebackClean_hits::total               44                       # number of WritebackClean hits
system.l2.UpgradeReq_hits::cpu.data            220853                       # number of UpgradeReq hits
system.l2.UpgradeReq_hits::total               220853                       # number of UpgradeReq hits
system.l2.ReadExReq_hits::cpu.data               3075                       # number of ReadExReq hits
system.l2.ReadExReq_hits::total                  3075                       # number of ReadExReq hits
system.l2.ReadSharedReq_hits::cpu.data         161154                       # number of ReadSharedReq hits
system.l2.ReadSharedReq_hits::total            161154                       # number of ReadSharedReq hits
system.l2.demand_hits::cpu.data                164229                       # number of demand (read+write) hits
system.l2.demand_hits::total                   164229                       # number of demand (read+write) hits
system.l2.overall_hits::cpu.data               164229                       # number of overall hits
system.l2.overall_hits::total                  164229                       # number of overall hits
system.l2.ReadExReq_misses::cpu.data            63436                       # number of ReadExReq misses
system.l2.ReadExReq_misses::total               63436                       # number of ReadExReq misses
system.l2.ReadCleanReq_misses::cpu.inst           355                       # number of ReadCleanReq misses
system.l2.ReadCleanReq_misses::total              355                       # number of ReadCleanReq misses
system.l2.ReadSharedReq_misses::cpu.data       454945                       # number of ReadSharedReq misses
system.l2.ReadSharedReq_misses::total          454945                       # number of ReadSharedReq misses
system.l2.demand_misses::cpu.inst                 355                       # number of demand (read+write) misses
system.l2.demand_misses::cpu.data              518381                       # number of demand (read+write) misses
system.l2.demand_misses::total                 518736                       # number of demand (read+write) misses
system.l2.overall_misses::cpu.inst                355                       # number of overall misses
system.l2.overall_misses::cpu.data             518381                       # number of overall misses
system.l2.overall_misses::total                518736                       # number of overall misses
system.l2.ReadExReq_miss_latency::cpu.data  15954483000                       # number of ReadExReq miss cycles
system.l2.ReadExReq_miss_latency::total   15954483000                       # number of ReadExReq miss cycles
system.l2.ReadCleanReq_miss_latency::cpu.inst     56874000                       # number of ReadCleanReq miss cycles
system.l2.ReadCleanReq_miss_latency::total     56874000                       # number of ReadCleanReq miss cycles
system.l2.ReadSharedReq_miss_latency::cpu.data  81934480000                       # number of ReadSharedReq miss cycles
system.l2.ReadSharedReq_miss_latency::total  81934480000                       # number of ReadSharedReq miss cycles
system.l2.demand_miss_latency::cpu.inst      56874000                       # number of demand (read+write) miss cycles
system.l2.demand_miss_latency::cpu.data   97888963000                       # number of demand (read+write) miss cycles
system.l2.demand_miss_latency::total      97945837000                       # number of demand (read+write) miss cycles
system.l2.overall_miss_latency::cpu.inst     56874000                       # number of overall miss cycles
system.l2.overall_miss_latency::cpu.data  97888963000                       # number of overall miss cycles
system.l2.overall_miss_latency::total     97945837000                       # number of overall miss cycles
system.l2.WritebackDirty_accesses::writebacks       657660                       # number of WritebackDirty accesses(hits+misses)
system.l2.WritebackDirty_accesses::total       657660                       # number of WritebackDirty accesses(hits+misses)
system.l2.WritebackClean_accesses::writebacks           44                       # number of WritebackClean accesses(hits+misses)
system.l2.WritebackClean_accesses::total           44                       # number of WritebackClean accesses(hits+misses)
system.l2.UpgradeReq_accesses::cpu.data        220853                       # number of UpgradeReq accesses(hits+misses)
system.l2.UpgradeReq_accesses::total           220853                       # number of UpgradeReq accesses(hits+misses)
system.l2.ReadExReq_accesses::cpu.data          66511                       # number of ReadExReq accesses(hits+misses)
system.l2.ReadExReq_accesses::total             66511                       # number of ReadExReq accesses(hits+misses)
system.l2.ReadCleanReq_accesses::cpu.inst          355                       # number of ReadCleanReq accesses(hits+misses)
system.l2.ReadCleanReq_accesses::total            355                       # number of ReadCleanReq accesses(hits+misses)
system.l2.ReadSharedReq_accesses::cpu.data       616099                       # number of ReadSharedReq accesses(hits+misses)
system.l2.ReadSharedReq_accesses::total        616099                       # number of ReadSharedReq accesses(hits+misses)
system.l2.demand_accesses::cpu.inst               355                       # number of demand (read+write) accesses
system.l2.demand_accesses::cpu.data            682610                       # number of demand (read+write) accesses
system.l2.demand_accesses::total               682965                       # number of demand (read+write) accesses
system.l2.overall_accesses::cpu.inst              355                       # number of overall (read+write) accesses
system.l2.overall_accesses::cpu.data           682610                       # number of overall (read+write) accesses
system.l2.overall_accesses::total              682965                       # number of overall (read+write) accesses
system.l2.ReadExReq_miss_rate::cpu.data      0.953767                       # miss rate for ReadExReq accesses
system.l2.ReadExReq_miss_rate::total         0.953767                       # miss rate for ReadExReq accesses
system.l2.ReadCleanReq_miss_rate::cpu.inst            1                       # miss rate for ReadCleanReq accesses
system.l2.ReadCleanReq_miss_rate::total             1                       # miss rate for ReadCleanReq accesses
system.l2.ReadSharedReq_miss_rate::cpu.data     0.738428                       # miss rate for ReadSharedReq accesses
system.l2.ReadSharedReq_miss_rate::total     0.738428                       # miss rate for ReadSharedReq accesses
system.l2.demand_miss_rate::cpu.inst                1                       # miss rate for demand accesses
system.l2.demand_miss_rate::cpu.data         0.759410                       # miss rate for demand accesses
system.l2.demand_miss_rate::total            0.759535                       # miss rate for demand accesses
system.l2.overall_miss_rate::cpu.inst               1                       # miss rate for overall accesses
system.l2.overall_miss_rate::cpu.data        0.759410                       # miss rate for overall accesses
system.l2.overall_miss_rate::total           0.759535                       # miss rate for overall accesses
system.l2.ReadExReq_avg_miss_latency::cpu.data 251505.186330                       # average ReadExReq miss latency
system.l2.ReadExReq_avg_miss_latency::total 251505.186330                       # average ReadExReq miss latency
system.l2.ReadCleanReq_avg_miss_latency::cpu.inst 160208.450704                       # average ReadCleanReq miss latency
system.l2.ReadCleanReq_avg_miss_latency::total 160208.450704                       # average ReadCleanReq miss latency
system.l2.ReadSharedReq_avg_miss_latency::cpu.data 180097.550253                       # average ReadSharedReq miss latency
system.l2.ReadSharedReq_avg_miss_latency::total 180097.550253                       # average ReadSharedReq miss latency
system.l2.demand_avg_miss_latency::cpu.inst 160208.450704                       # average overall miss latency
system.l2.demand_avg_miss_latency::cpu.data 188835.939203                       # average overall miss latency
system.l2.demand_avg_miss_latency::total 188816.347815                       # average overall miss latency
system.l2.overall_avg_miss_latency::cpu.inst 160208.450704                       # average overall miss latency
system.l2.overall_avg_miss_latency::cpu.data 188835.939203                       # average overall miss latency
system.l2.overall_avg_miss_latency::total 188816.347815                       # average overall miss latency
system.l2.blocked_cycles::no_mshrs                  0                       # number of cycles access was blocked
system.l2.blocked_cycles::no_targets                0                       # number of cycles access was blocked
system.l2.blocked::no_mshrs                         0                       # number of cycles access was blocked
system.l2.blocked::no_targets                       0                       # number of cycles access was blocked
system.l2.avg_blocked_cycles::no_mshrs            nan                       # average number of cycles each access was blocked
system.l2.avg_blocked_cycles::no_targets          nan                       # average number of cycles each access was blocked
system.l2.writebacks::writebacks               508365                       # number of writebacks
system.l2.writebacks::total                    508365                       # number of writebacks
system.l2.ReadExReq_mshr_misses::cpu.data        63436                       # number of ReadExReq MSHR misses
system.l2.ReadExReq_mshr_misses::total          63436                       # number of ReadExReq MSHR misses
system.l2.ReadCleanReq_mshr_misses::cpu.inst          355                       # number of ReadCleanReq MSHR misses
system.l2.ReadCleanReq_mshr_misses::total          355                       # number of ReadCleanReq MSHR misses
system.l2.ReadSharedReq_mshr_misses::cpu.data       454945                       # number of ReadSharedReq MSHR misses
system.l2.ReadSharedReq_mshr_misses::total       454945                       # number of ReadSharedReq MSHR misses
system.l2.demand_mshr_misses::cpu.inst            355                       # number of demand (read+write) MSHR misses
system.l2.demand_mshr_misses::cpu.data         518381                       # number of demand (read+write) MSHR misses
system.l2.demand_mshr_misses::total            518736                       # number of demand (read+write) MSHR misses
system.l2.overall_mshr_misses::cpu.inst           355                       # number of overall MSHR misses
system.l2.overall_mshr_misses::cpu.data        518381                       # number of overall MSHR misses
system.l2.overall_mshr_misses::total           518736                       # number of overall MSHR misses
system.l2.ReadExReq_mshr_miss_latency::cpu.data  15320123000                       # number of ReadExReq MSHR miss cycles
system.l2.ReadExReq_mshr_miss_latency::total  15320123000                       # number of ReadExReq MSHR miss cycles
system.l2.ReadCleanReq_mshr_miss_latency::cpu.inst     53324000                       # number of ReadCleanReq MSHR miss cycles
system.l2.ReadCleanReq_mshr_miss_latency::total     53324000                       # number of ReadCleanReq MSHR miss cycles
system.l2.ReadSharedReq_mshr_miss_latency::cpu.data  77385030000                       # number of ReadSharedReq MSHR miss cycles
system.l2.ReadSharedReq_mshr_miss_latency::total  77385030000                       # number of ReadSharedReq MSHR miss cycles
system.l2.demand_mshr_miss_latency::cpu.inst     53324000                       # number of demand (read+write) MSHR miss cycles
system.l2.demand_mshr_miss_latency::cpu.data  92705153000                       # number of demand (read+write) MSHR miss cycles
system.l2.demand_mshr_miss_latency::total  92758477000                       # number of demand (read+write) MSHR miss cycles
system.l2.overall_mshr_miss_latency::cpu.inst     53324000                       # number of overall MSHR miss cycles
system.l2.overall_mshr_miss_latency::cpu.data  92705153000                       # number of overall MSHR miss cycles
system.l2.overall_mshr_miss_latency::total  92758477000                       # number of overall MSHR miss cycles
system.l2.ReadExReq_mshr_miss_rate::cpu.data     0.953767                       # mshr miss rate for ReadExReq accesses
system.l2.ReadExReq_mshr_miss_rate::total     0.953767                       # mshr miss rate for ReadExReq accesses
system.l2.ReadCleanReq_mshr_miss_rate::cpu.inst            1                       # mshr miss rate for ReadCleanReq accesses
system.l2.ReadCleanReq_mshr_miss_rate::total            1                       # mshr miss rate for ReadCleanReq accesses
system.l2.ReadSharedReq_mshr_miss_rate::cpu.data     0.738428                       # mshr miss rate for ReadSharedReq accesses
system.l2.ReadSharedReq_mshr_miss_rate::total     0.738428                       # mshr miss rate for ReadSharedReq accesses
system.l2.demand_mshr_miss_rate::cpu.inst            1                       # mshr miss rate for demand accesses
system.l2.demand_mshr_miss_rate::cpu.data     0.759410                       # mshr miss rate for demand accesses
system.l2.demand_mshr_miss_rate::total       0.759535                       # mshr miss rate for demand accesses
system.l2.overall_mshr_miss_rate::cpu.inst            1                       # mshr miss rate for overall accesses
system.l2.overall_mshr_miss_rate::cpu.data     0.759410                       # mshr miss rate for overall accesses
system.l2.overall_mshr_miss_rate::total      0.759535                       # mshr miss rate for overall accesses
system.l2.ReadExReq_avg_mshr_miss_latency::cpu.data 241505.186330                       # average ReadExReq mshr miss latency
system.l2.ReadExReq_avg_mshr_miss_latency::total 241505.186330                       # average ReadExReq mshr miss latency
system.l2.ReadCleanReq_avg_mshr_miss_latency::cpu.inst 150208.450704                       # average ReadCleanReq mshr miss latency
system.l2.ReadCleanReq_avg_mshr_miss_latency::total 150208.450704                       # average ReadCleanReq mshr miss latency
system.l2.ReadSharedReq_avg_mshr_miss_latency::cpu.data 170097.550253                       # average ReadSharedReq mshr miss latency
system.l2.ReadSharedReq_avg_mshr_miss_latency::total 170097.550253                       # average ReadSharedReq mshr miss latency
system.l2.demand_avg_mshr_miss_latency::cpu.inst 150208.450704                       # average overall mshr miss latency
system.l2.demand_avg_mshr_miss_latency::cpu.data 178835.939203                       # average overall mshr miss latency
system.l2.demand_avg_mshr_miss_latency::total 178816.347815                       # average overall mshr miss latency
system.l2.overall_avg_mshr_miss_latency::cpu.inst 150208.450704                       # average overall mshr miss latency
system.l2.overall_avg_mshr_miss_latency::cpu.data 178835.939203                       # average overall mshr miss latency
system.l2.overall_avg_mshr_miss_latency::total 178816.347815                       # average overall mshr miss latency
system.l2.replacements                         516791                       # number of replacements
system.l3.tags.pwrStateResidencyTicks::UNDEFINED 1079300794000                       # Cumulative time (in ticks) in various power states
system.l3.tags.tagsinuse                 16156.429863                       # Cycle average of tags in use
system.l3.tags.total_refs                     1027201                       # Total number of references to valid blocks.
system.l3.tags.sampled_refs                    748486                       # Sample count of references to valid blocks.
system.l3.tags.avg_refs                      1.372372                       # Average number of references to valid blocks.
system.l3.tags.warmup_cycle                    418000                       # Cycle when the warmup percentage was hit.
system.l3.tags.occ_blocks::writebacks    15563.844527                       # Average occupied blocks per requestor
system.l3.tags.occ_blocks::cpu.inst          8.635649                       # Average occupied blocks per requestor
system.l3.tags.occ_blocks::cpu.data        583.949687                       # Average occupied blocks per requestor
system.l3.tags.occ_percent::writebacks       0.949942                       # Average percentage of cache occupancy
system.l3.tags.occ_percent::cpu.inst         0.000527                       # Average percentage of cache occupancy
system.l3.tags.occ_percent::cpu.data         0.035641                       # Average percentage of cache occupancy
system.l3.tags.occ_percent::total            0.986110                       # Average percentage of cache occupancy
system.l3.tags.occ_task_id_blocks::1024         16384                       # Occupied blocks per task id
system.l3.tags.age_task_id_blocks_1024::0           55                       # Occupied blocks per task id
system.l3.tags.age_task_id_blocks_1024::1           47                       # Occupied blocks per task id
system.l3.tags.age_task_id_blocks_1024::3          376                       # Occupied blocks per task id
system.l3.tags.age_task_id_blocks_1024::4        15906                       # Occupied blocks per task id
system.l3.tags.occ_task_id_percent::1024            1                       # Percentage of cache occupancy per task id
system.l3.tags.tag_accesses                  17310902                       # Number of tag accesses
system.l3.tags.data_accesses                 17310902                       # Number of data accesses
system.l3.pwrStateResidencyTicks::UNDEFINED 1079300794000                       # Cumulative time (in ticks) in various power states
system.l3.WritebackDirty_hits::writebacks       508365                       # number of WritebackDirty hits
system.l3.WritebackDirty_hits::total           508365                       # number of WritebackDirty hits
system.l3.ReadExReq_hits::cpu.data                696                       # number of ReadExReq hits
system.l3.ReadExReq_hits::total                   696                       # number of ReadExReq hits
system.l3.ReadSharedReq_hits::cpu.data         237169                       # number of ReadSharedReq hits
system.l3.ReadSharedReq_hits::total            237169                       # number of ReadSharedReq hits
system.l3.demand_hits::cpu.data                237865                       # number of demand (read+write) hits
system.l3.demand_hits::total                   237865                       # number of demand (read+write) hits
system.l3.overall_hits::cpu.data               237865                       # number of overall hits
system.l3.overall_hits::total                  237865                       # number of overall hits
system.l3.ReadExReq_misses::cpu.data            62740                       # number of ReadExReq misses
system.l3.ReadExReq_misses::total               62740                       # number of ReadExReq misses
system.l3.ReadSharedReq_misses::cpu.inst          355                       # number of ReadSharedReq misses
system.l3.ReadSharedReq_misses::cpu.data       217776                       # number of ReadSharedReq misses
system.l3.ReadSharedReq_misses::total          218131                       # number of ReadSharedReq misses
system.l3.demand_misses::cpu.inst                 355                       # number of demand (read+write) misses
system.l3.demand_misses::cpu.data              280516                       # number of demand (read+write) misses
system.l3.demand_misses::total                 280871                       # number of demand (read+write) misses
system.l3.overall_misses::cpu.inst                355                       # number of overall misses
system.l3.overall_misses::cpu.data             280516                       # number of overall misses
system.l3.overall_misses::total                280871                       # number of overall misses
system.l3.ReadExReq_miss_latency::cpu.data  14615019000                       # number of ReadExReq miss cycles
system.l3.ReadExReq_miss_latency::total   14615019000                       # number of ReadExReq miss cycles
system.l3.ReadSharedReq_miss_latency::cpu.inst     49419000                       # number of ReadSharedReq miss cycles
system.l3.ReadSharedReq_miss_latency::cpu.data  69762052500                       # number of ReadSharedReq miss cycles
system.l3.ReadSharedReq_miss_latency::total  69811471500                       # number of ReadSharedReq miss cycles
system.l3.demand_miss_latency::cpu.inst      49419000                       # number of demand (read+write) miss cycles
system.l3.demand_miss_latency::cpu.data   84377071500                       # number of demand (read+write) miss cycles
system.l3.demand_miss_latency::total      84426490500                       # number of demand (read+write) miss cycles
system.l3.overall_miss_latency::cpu.inst     49419000                       # number of overall miss cycles
system.l3.overall_miss_latency::cpu.data  84377071500                       # number of overall miss cycles
system.l3.overall_miss_latency::total     84426490500                       # number of overall miss cycles
system.l3.WritebackDirty_accesses::writebacks       508365                       # number of WritebackDirty accesses(hits+misses)
system.l3.WritebackDirty_accesses::total       508365                       # number of WritebackDirty accesses(hits+misses)
system.l3.ReadExReq_accesses::cpu.data          63436                       # number of ReadExReq accesses(hits+misses)
system.l3.ReadExReq_accesses::total             63436                       # number of ReadExReq accesses(hits+misses)
system.l3.ReadSharedReq_accesses::cpu.inst          355                       # number of ReadSharedReq accesses(hits+misses)
system.l3.ReadSharedReq_accesses::cpu.data       454945                       # number of ReadSharedReq accesses(hits+misses)
system.l3.ReadSharedReq_accesses::total        455300                       # number of ReadSharedReq accesses(hits+misses)
system.l3.demand_accesses::cpu.inst               355                       # number of demand (read+write) accesses
system.l3.demand_accesses::cpu.data            518381                       # number of demand (read+write) accesses
system.l3.demand_accesses::total               518736                       # number of demand (read+write) accesses
system.l3.overall_accesses::cpu.inst              355                       # number of overall (read+write) accesses
system.l3.overall_accesses::cpu.data           518381                       # number of overall (read+write) accesses
system.l3.overall_accesses::total              518736                       # number of overall (read+write) accesses
system.l3.ReadExReq_miss_rate::cpu.data      0.989028                       # miss rate for ReadExReq accesses
system.l3.ReadExReq_miss_rate::total         0.989028                       # miss rate for ReadExReq accesses
system.l3.ReadSharedReq_miss_rate::cpu.inst            1                       # miss rate for ReadSharedReq accesses
system.l3.ReadSharedReq_miss_rate::cpu.data     0.478686                       # miss rate for ReadSharedReq accesses
system.l3.ReadSharedReq_miss_rate::total     0.479093                       # miss rate for ReadSharedReq accesses
system.l3.demand_miss_rate::cpu.inst                1                       # miss rate for demand accesses
system.l3.demand_miss_rate::cpu.data         0.541139                       # miss rate for demand accesses
system.l3.demand_miss_rate::total            0.541453                       # miss rate for demand accesses
system.l3.overall_miss_rate::cpu.inst               1                       # miss rate for overall accesses
system.l3.overall_miss_rate::cpu.data        0.541139                       # miss rate for overall accesses
system.l3.overall_miss_rate::total           0.541453                       # miss rate for overall accesses
system.l3.ReadExReq_avg_miss_latency::cpu.data 232945.792158                       # average ReadExReq miss latency
system.l3.ReadExReq_avg_miss_latency::total 232945.792158                       # average ReadExReq miss latency
system.l3.ReadSharedReq_avg_miss_latency::cpu.inst 139208.450704                       # average ReadSharedReq miss latency
system.l3.ReadSharedReq_avg_miss_latency::cpu.data 320338.570366                       # average ReadSharedReq miss latency
system.l3.ReadSharedReq_avg_miss_latency::total 320043.787907                       # average ReadSharedReq miss latency
system.l3.demand_avg_miss_latency::cpu.inst 139208.450704                       # average overall miss latency
system.l3.demand_avg_miss_latency::cpu.data 300792.366567                       # average overall miss latency
system.l3.demand_avg_miss_latency::total 300588.136547                       # average overall miss latency
system.l3.overall_avg_miss_latency::cpu.inst 139208.450704                       # average overall miss latency
system.l3.overall_avg_miss_latency::cpu.data 300792.366567                       # average overall miss latency
system.l3.overall_avg_miss_latency::total 300588.136547                       # average overall miss latency
system.l3.blocked_cycles::no_mshrs                  0                       # number of cycles access was blocked
system.l3.blocked_cycles::no_targets                0                       # number of cycles access was blocked
system.l3.blocked::no_mshrs                         0                       # number of cycles access was blocked
system.l3.blocked::no_targets                       0                       # number of cycles access was blocked
system.l3.avg_blocked_cycles::no_mshrs            nan                       # average number of cycles each access was blocked
system.l3.avg_blocked_cycles::no_targets          nan                       # average number of cycles each access was blocked
system.l3.writebacks::writebacks               255076                       # number of writebacks
system.l3.writebacks::total                    255076                       # number of writebacks
system.l3.CleanEvict_mshr_misses::writebacks         7950                       # number of CleanEvict MSHR misses
system.l3.CleanEvict_mshr_misses::total          7950                       # number of CleanEvict MSHR misses
system.l3.ReadExReq_mshr_misses::cpu.data        62740                       # number of ReadExReq MSHR misses
system.l3.ReadExReq_mshr_misses::total          62740                       # number of ReadExReq MSHR misses
system.l3.ReadSharedReq_mshr_misses::cpu.inst          355                       # number of ReadSharedReq MSHR misses
system.l3.ReadSharedReq_mshr_misses::cpu.data       217776                       # number of ReadSharedReq MSHR misses
system.l3.ReadSharedReq_mshr_misses::total       218131                       # number of ReadSharedReq MSHR misses
system.l3.demand_mshr_misses::cpu.inst            355                       # number of demand (read+write) MSHR misses
system.l3.demand_mshr_misses::cpu.data         280516                       # number of demand (read+write) MSHR misses
system.l3.demand_mshr_misses::total            280871                       # number of demand (read+write) MSHR misses
system.l3.overall_mshr_misses::cpu.inst           355                       # number of overall MSHR misses
system.l3.overall_mshr_misses::cpu.data        280516                       # number of overall MSHR misses
system.l3.overall_mshr_misses::total           280871                       # number of overall MSHR misses
system.l3.ReadExReq_mshr_miss_latency::cpu.data  13987619000                       # number of ReadExReq MSHR miss cycles
system.l3.ReadExReq_mshr_miss_latency::total  13987619000                       # number of ReadExReq MSHR miss cycles
system.l3.ReadSharedReq_mshr_miss_latency::cpu.inst     45869000                       # number of ReadSharedReq MSHR miss cycles
system.l3.ReadSharedReq_mshr_miss_latency::cpu.data  67584292500                       # number of ReadSharedReq MSHR miss cycles
system.l3.ReadSharedReq_mshr_miss_latency::total  67630161500                       # number of ReadSharedReq MSHR miss cycles
system.l3.demand_mshr_miss_latency::cpu.inst     45869000                       # number of demand (read+write) MSHR miss cycles
system.l3.demand_mshr_miss_latency::cpu.data  81571911500                       # number of demand (read+write) MSHR miss cycles
system.l3.demand_mshr_miss_latency::total  81617780500                       # number of demand (read+write) MSHR miss cycles
system.l3.overall_mshr_miss_latency::cpu.inst     45869000                       # number of overall MSHR miss cycles
system.l3.overall_mshr_miss_latency::cpu.data  81571911500                       # number of overall MSHR miss cycles
system.l3.overall_mshr_miss_latency::total  81617780500                       # number of overall MSHR miss cycles
system.l3.CleanEvict_mshr_miss_rate::writebacks          inf                       # mshr miss rate for CleanEvict accesses
system.l3.CleanEvict_mshr_miss_rate::total          inf                       # mshr miss rate for CleanEvict accesses
system.l3.ReadExReq_mshr_miss_rate::cpu.data     0.989028                       # mshr miss rate for ReadExReq accesses
system.l3.ReadExReq_mshr_miss_rate::total     0.989028                       # mshr miss rate for ReadExReq accesses
system.l3.ReadSharedReq_mshr_miss_rate::cpu.inst            1                       # mshr miss rate for ReadSharedReq accesses
system.l3.ReadSharedReq_mshr_miss_rate::cpu.data     0.478686                       # mshr miss rate for ReadSharedReq accesses
system.l3.ReadSharedReq_mshr_miss_rate::total     0.479093                       # mshr miss rate for ReadSharedReq accesses
system.l3.demand_mshr_miss_rate::cpu.inst            1                       # mshr miss rate for demand accesses
system.l3.demand_mshr_miss_rate::cpu.data     0.541139                       # mshr miss rate for demand accesses
system.l3.demand_mshr_miss_rate::total       0.541453                       # mshr miss rate for demand accesses
system.l3.overall_mshr_miss_rate::cpu.inst            1                       # mshr miss rate for overall accesses
system.l3.overall_mshr_miss_rate::cpu.data     0.541139                       # mshr miss rate for overall accesses
system.l3.overall_mshr_miss_rate::total      0.541453                       # mshr miss rate for overall accesses
system.l3.ReadExReq_avg_mshr_miss_latency::cpu.data 222945.792158                       # average ReadExReq mshr miss latency
system.l3.ReadExReq_avg_mshr_miss_latency::total 222945.792158                       # average ReadExReq mshr miss latency
system.l3.ReadSharedReq_avg_mshr_miss_latency::cpu.inst 129208.450704                       # average ReadSharedReq mshr miss latency
system.l3.ReadSharedReq_avg_mshr_miss_latency::cpu.data 310338.570366                       # average ReadSharedReq mshr miss latency
system.l3.ReadSharedReq_avg_mshr_miss_latency::total 310043.787907                       # average ReadSharedReq mshr miss latency
system.l3.demand_avg_mshr_miss_latency::cpu.inst 129208.450704                       # average overall mshr miss latency
system.l3.demand_avg_mshr_miss_latency::cpu.data 290792.366567                       # average overall mshr miss latency
system.l3.demand_avg_mshr_miss_latency::total 290588.136547                       # average overall mshr miss latency
system.l3.overall_avg_mshr_miss_latency::cpu.inst 129208.450704                       # average overall mshr miss latency
system.l3.overall_avg_mshr_miss_latency::cpu.data 290792.366567                       # average overall mshr miss latency
system.l3.overall_avg_mshr_miss_latency::total 290588.136547                       # average overall mshr miss latency
system.l3.replacements                         732102                       # number of replacements
system.membus.snoop_filter.tot_requests        561643                       # Total number of requests made to the snoop filter.
system.membus.snoop_filter.hit_single_requests       280772                       # Number of requests hitting in the snoop filter with a single holder of the requested data.
system.membus.snoop_filter.hit_multi_requests            0                       # Number of requests hitting in the snoop filter with multiple (>1) holders of the requested data.
system.membus.snoop_filter.tot_snoops               0                       # Total number of snoops made to the snoop filter.
system.membus.snoop_filter.hit_single_snoops            0                       # Number of snoops hitting in the snoop filter with a single holder of the requested data.
system.membus.snoop_filter.hit_multi_snoops            0                       # Number of snoops hitting in the snoop filter with multiple (>1) holders of the requested data.
system.membus.pwrStateResidencyTicks::UNDEFINED 1079300794000                       # Cumulative time (in ticks) in various power states
system.membus.trans_dist::ReadResp             218131                       # Transaction distribution
system.membus.trans_dist::WritebackDirty       255076                       # Transaction distribution
system.membus.trans_dist::CleanEvict             8049                       # Transaction distribution
system.membus.trans_dist::ReadExReq             62740                       # Transaction distribution
system.membus.trans_dist::ReadExResp            62740                       # Transaction distribution
system.membus.trans_dist::ReadSharedReq        218131                       # Transaction distribution
system.membus.pkt_count_system.l3.mem_side::system.mem_ctrls.port       824867                       # Packet count per connected master and slave (bytes)
system.membus.pkt_count_system.l3.mem_side::total       824867                       # Packet count per connected master and slave (bytes)
system.membus.pkt_count::total                 824867                       # Packet count per connected master and slave (bytes)
system.membus.pkt_size_system.l3.mem_side::system.mem_ctrls.port     34300608                       # Cumulative packet size per connected master and slave (bytes)
system.membus.pkt_size_system.l3.mem_side::total     34300608                       # Cumulative packet size per connected master and slave (bytes)
system.membus.pkt_size::total                34300608                       # Cumulative packet size per connected master and slave (bytes)
system.membus.snoops                                0                       # Total snoops (count)
system.membus.snoopTraffic                          0                       # Total snoop traffic (bytes)
system.membus.snoop_fanout::samples            280871                       # Request fanout histogram
system.membus.snoop_fanout::mean                    0                       # Request fanout histogram
system.membus.snoop_fanout::stdev                   0                       # Request fanout histogram
system.membus.snoop_fanout::underflows              0      0.00%      0.00% # Request fanout histogram
system.membus.snoop_fanout::0                  280871    100.00%    100.00% # Request fanout histogram
system.membus.snoop_fanout::1                       0      0.00%    100.00% # Request fanout histogram
system.membus.snoop_fanout::overflows               0      0.00%    100.00% # Request fanout histogram
system.membus.snoop_fanout::min_value               0                       # Request fanout histogram
system.membus.snoop_fanout::max_value               0                       # Request fanout histogram
system.membus.snoop_fanout::total              280871                       # Request fanout histogram
system.membus.reqLayer2.occupancy          1582725500                       # Layer occupancy (ticks)
system.membus.reqLayer2.utilization               0.1                       # Layer utilization (%)
system.membus.respLayer1.occupancy         1404360000                       # Layer occupancy (ticks)
system.membus.respLayer1.utilization              0.1                       # Layer utilization (%)
system.tol2bus.snoop_filter.tot_requests      1585960                       # Total number of requests made to the snoop filter.
system.tol2bus.snoop_filter.hit_single_requests       902995                       # Number of requests hitting in the snoop filter with a single holder of the requested data.
system.tol2bus.snoop_filter.hit_multi_requests            0                       # Number of requests hitting in the snoop filter with multiple (>1) holders of the requested data.
system.tol2bus.snoop_filter.tot_snoops         240851                       # Total number of snoops made to the snoop filter.
system.tol2bus.snoop_filter.hit_single_snoops       240851                       # Number of snoops hitting in the snoop filter with a single holder of the requested data.
system.tol2bus.snoop_filter.hit_multi_snoops            0                       # Number of snoops hitting in the snoop filter with multiple (>1) holders of the requested data.
system.tol2bus.pwrStateResidencyTicks::UNDEFINED 1079300794000                       # Cumulative time (in ticks) in various power states
system.tol2bus.trans_dist::ReadResp            616454                       # Transaction distribution
system.tol2bus.trans_dist::WritebackDirty      1166025                       # Transaction distribution
system.tol2bus.trans_dist::WritebackClean           44                       # Transaction distribution
system.tol2bus.trans_dist::CleanEvict          509791                       # Transaction distribution
system.tol2bus.trans_dist::UpgradeReq          220853                       # Transaction distribution
system.tol2bus.trans_dist::UpgradeResp         220853                       # Transaction distribution
system.tol2bus.trans_dist::ReadExReq            66511                       # Transaction distribution
system.tol2bus.trans_dist::ReadExResp           66511                       # Transaction distribution
system.tol2bus.trans_dist::ReadCleanReq           355                       # Transaction distribution
system.tol2bus.trans_dist::ReadSharedReq       616099                       # Transaction distribution
system.tol2bus.pkt_count_system.cpu.icache.mem_side::system.l2.cpu_side          754                       # Packet count per connected master and slave (bytes)
system.tol2bus.pkt_count_system.cpu.dcache.mem_side::system.l2.cpu_side      2489024                       # Packet count per connected master and slave (bytes)
system.tol2bus.pkt_count::total               2489778                       # Packet count per connected master and slave (bytes)
system.tol2bus.pkt_size_system.cpu.icache.mem_side::system.l2.cpu_side        25536                       # Cumulative packet size per connected master and slave (bytes)
system.tol2bus.pkt_size_system.cpu.dcache.mem_side::system.l2.cpu_side     85777280                       # Cumulative packet size per connected master and slave (bytes)
system.tol2bus.pkt_size::total               85802816                       # Cumulative packet size per connected master and slave (bytes)
system.tol2bus.snoops                          993718                       # Total snoops (count)
system.tol2bus.snoopTraffic                  32535360                       # Total snoop traffic (bytes)
system.tol2bus.snoop_fanout::samples          1897536                       # Request fanout histogram
system.tol2bus.snoop_fanout::mean            0.126928                       # Request fanout histogram
system.tol2bus.snoop_fanout::stdev           0.332893                       # Request fanout histogram
system.tol2bus.snoop_fanout::underflows             0      0.00%      0.00% # Request fanout histogram
system.tol2bus.snoop_fanout::0                1656685     87.31%     87.31% # Request fanout histogram
system.tol2bus.snoop_fanout::1                 240851     12.69%    100.00% # Request fanout histogram
system.tol2bus.snoop_fanout::2                      0      0.00%    100.00% # Request fanout histogram
system.tol2bus.snoop_fanout::3                      0      0.00%    100.00% # Request fanout histogram
system.tol2bus.snoop_fanout::4                      0      0.00%    100.00% # Request fanout histogram
system.tol2bus.snoop_fanout::overflows              0      0.00%    100.00% # Request fanout histogram
system.tol2bus.snoop_fanout::min_value              0                       # Request fanout histogram
system.tol2bus.snoop_fanout::max_value              1                       # Request fanout histogram
system.tol2bus.snoop_fanout::total            1897536                       # Request fanout histogram
system.tol2bus.reqLayer0.occupancy         1450684000                       # Layer occupancy (ticks)
system.tol2bus.reqLayer0.utilization              0.1                       # Layer utilization (%)
system.tol2bus.respLayer0.occupancy            532500                       # Layer occupancy (ticks)
system.tol2bus.respLayer0.utilization             0.0                       # Layer utilization (%)
system.tol2bus.respLayer1.occupancy        1134341500                       # Layer occupancy (ticks)
system.tol2bus.respLayer1.utilization             0.1                       # Layer utilization (%)
system.tol3bus.snoop_filter.tot_requests      1035235                       # Total number of requests made to the snoop filter.
system.tol3bus.snoop_filter.hit_single_requests       516415                       # Number of requests hitting in the snoop filter with a single holder of the requested data.
system.tol3bus.snoop_filter.hit_multi_requests            0                       # Number of requests hitting in the snoop filter with multiple (>1) holders of the requested data.
system.tol3bus.snoop_filter.tot_snoops         476927                       # Total number of snoops made to the snoop filter.
system.tol3bus.snoop_filter.hit_single_snoops       476927                       # Number of snoops hitting in the snoop filter with a single holder of the requested data.
system.tol3bus.snoop_filter.hit_multi_snoops            0                       # Number of snoops hitting in the snoop filter with multiple (>1) holders of the requested data.
system.tol3bus.pwrStateResidencyTicks::UNDEFINED 1079300794000                       # Cumulative time (in ticks) in various power states
system.tol3bus.trans_dist::ReadResp            455300                       # Transaction distribution
system.tol3bus.trans_dist::WritebackDirty       763441                       # Transaction distribution
system.tol3bus.trans_dist::CleanEvict          485076                       # Transaction distribution
system.tol3bus.trans_dist::ReadExReq            63436                       # Transaction distribution
system.tol3bus.trans_dist::ReadExResp           63436                       # Transaction distribution
system.tol3bus.trans_dist::ReadSharedReq       455300                       # Transaction distribution
system.tol3bus.pkt_count_system.l2.mem_side::system.l3.cpu_side      1553887                       # Packet count per connected master and slave (bytes)
system.tol3bus.pkt_size_system.l2.mem_side::system.l3.cpu_side     65734464                       # Cumulative packet size per connected master and slave (bytes)
system.tol3bus.snoops                          732102                       # Total snoops (count)
system.tol3bus.snoopTraffic                  16324864                       # Total snoop traffic (bytes)
system.tol3bus.snoop_fanout::samples          1250922                       # Request fanout histogram
system.tol3bus.snoop_fanout::mean            0.381260                       # Request fanout histogram
system.tol3bus.snoop_fanout::stdev           0.485697                       # Request fanout histogram
system.tol3bus.snoop_fanout::underflows             0      0.00%      0.00% # Request fanout histogram
system.tol3bus.snoop_fanout::0                 773995     61.87%     61.87% # Request fanout histogram
system.tol3bus.snoop_fanout::1                 476927     38.13%    100.00% # Request fanout histogram
system.tol3bus.snoop_fanout::overflows              0      0.00%    100.00% # Request fanout histogram
system.tol3bus.snoop_fanout::min_value              0                       # Request fanout histogram
system.tol3bus.snoop_fanout::max_value              1                       # Request fanout histogram
system.tol3bus.snoop_fanout::total            1250922                       # Request fanout histogram
system.tol3bus.reqLayer0.occupancy         1026024416                       # Layer occupancy (ticks)
system.tol3bus.reqLayer0.utilization              0.1                       # Layer utilization (%)
system.tol3bus.respLayer0.occupancy         778104084                       # Layer occupancy (ticks)
system.tol3bus.respLayer0.utilization             0.1                       # Layer utilization (%)

---------- End Simulation Statistics   ----------
